Circuit: * C:\Users\anupa\Desktop\IIT LECTURES\Sem-4\EE 230 Analog Lab\Lab_12_Lab_13\LTSpice_Simulation\Experiment_1_a_B.asc

Direct Newton iteration for .op point succeeded.

Date: Sat Apr 20 15:10:35 2024
Total elapsed time: 0.098 seconds.

tnom = 27
temp = 27
method = trap
totiter = 23
traniter = 0
tranpoints = 0
accept = 0
rejected = 0
matrix size = 30
fillins = 39
solver = Normal
Avg thread counts: 20.0/0.0/20.0/15.1
Matrix Compiler1:     195 opcodes
Matrix Compiler2: 3.08 KB object code size
