Circuit: * C:\Users\anupa\Desktop\IIT LECTURES\Sem-4\EE 230 Analog Lab\Lab_12_Lab_13\LTSpice_Simulation\Experiment_1_c.asc

Direct Newton iteration for .op point succeeded.

Date: Sat Apr 20 15:18:17 2024
Total elapsed time: 0.234 seconds.

tnom = 27
temp = 27
method = modified trap
totiter = 2093
traniter = 2082
tranpoints = 1042
accept = 1042
rejected = 0
matrix size = 77
fillins = 79
solver = Normal
Avg thread counts: 4.5/8.1/8.1/4.5
Matrix Compiler1: 7.41 KB object code size  3.1/2.5/[1.5]
Matrix Compiler2: 7.57 KB object code size  1.6/2.2/[0.7]

