Circuit: * C:\Users\anupa\Desktop\IIT LECTURES\Sem-4\EE 230 Analog Lab\Lab_12_Lab_13\LTSpice_Simulation\Experiment_1_c_A.asc

Direct Newton iteration for .op point succeeded.

Date: Sat Apr 20 15:18:26 2024
Total elapsed time: 0.101 seconds.

tnom = 27
temp = 27
method = trap
totiter = 11
traniter = 0
tranpoints = 0
accept = 0
rejected = 0
matrix size = 77
fillins = 77
solver = Normal
Avg thread counts: 20.0/0.0/20.0/15.3
Matrix Compiler1:     400 opcodes
Matrix Compiler2: 7.62 KB object code size
