Circuit: * C:\Users\anupa\Desktop\IIT LECTURES\Sem-4\EE 230 Analog Lab\Lab_12_Lab_13\LTSpice_Simulation\Experiment_1_b_C.asc

.OP point found by inspection.

Date: Fri Apr  5 14:10:17 2024
Total elapsed time: 0.043 seconds.

tnom = 27
temp = 27
method = trap
totiter = 0
traniter = 0
tranpoints = 0
accept = 0
rejected = 0
matrix size = 5
fillins = 2
solver = Normal
Avg thread counts: 20.0/0.0/0.0/15.4
Matrix Compiler1:      18 opcodes
Matrix Compiler2:      31 opcodes
