Circuit: * C:\Users\anupa\Desktop\IIT LECTURES\Sem-4\EE 230 Analog Lab\Lab_12_Lab_13\LTSpice_Simulation\Experiment_1_a_A.asc

Direct Newton iteration for .op point succeeded.

Date: Sat Apr 20 15:09:13 2024
Total elapsed time: 0.311 seconds.

tnom = 27
temp = 27
method = modified trap
totiter = 2191
traniter = 2168
tranpoints = 1085
accept = 1056
rejected = 29
matrix size = 30
fillins = 39
solver = Normal
Avg thread counts: 4.4/7.8/7.8/4.4
Matrix Compiler1: 3.56 KB object code size  1.6/1.2/[0.5]
Matrix Compiler2: 3.08 KB object code size  1.0/1.0/[0.9]

