Circuit: * C:\Users\anupa\Desktop\IIT LECTURES\Sem-4\EE 230 Analog Lab\Lab_12_Lab_13\LTSpice_Simulation\Experiment_1_a.asc

Direct Newton iteration for .op point succeeded.

Date: Fri Apr  5 12:19:42 2024
Total elapsed time: 0.221 seconds.

tnom = 27
temp = 27
method = modified trap
totiter = 2191
traniter = 2168
tranpoints = 1085
accept = 1056
rejected = 29
matrix size = 30
fillins = 39
solver = Normal
Avg thread counts: 4.4/7.8/7.8/4.4
Matrix Compiler1: 3.56 KB object code size  2.6/1.3/[0.7]
Matrix Compiler2: off  [1.2]/1.6/2.7

