Circuit: * C:\Users\anupa\Desktop\IIT LECTURES\Sem-4\EE 230 Analog Lab\Lab_12_Lab_13\Submission\1_c.asc

Early termination of direct N-R iteration.
Direct Newton iteration failed to find .op point.  (Use ".option noopiter" to skip.)
Starting Gmin stepping
Gmin = 10
vernier = 0.5
vernier = 0.25
vernier = 0.125
Gmin = 5.5165
vernier = 0.0625
vernier = 0.03125
vernier = 0.015625
vernier = 0.0078125
Gmin = 5.48432
vernier = 0.00390625
vernier = 0.00195312
vernier = 0.000976562
vernier = 0.000488281
Gmin = 0
Gmin stepping failed

Starting source stepping with srcstepmethod=0
Source Step = 3.0303%
Source Step = 33.3333%
Source Step = 63.6364%
Source Step = 93.9394%
Source stepping succeeded in finding the operating point.


Date: Sat Apr 20 15:19:30 2024
Total elapsed time: 0.224 seconds.

tnom = 27
temp = 27
method = trap
totiter = 1640
traniter = 0
tranpoints = 0
accept = 0
rejected = 0
matrix size = 59
fillins = 183
solver = Normal
Avg thread counts: 5.5/0.0/20.0/4.6
Matrix Compiler1:     713 opcodes
Matrix Compiler2: 8.10 KB object code size  3.1/2.4/[2.1]

