Circuit: * C:\Users\anupa\Desktop\IIT LECTURES\Sem-4\EE 230 Analog Lab\Lab_12_Lab_13\Submission\Experiment_1_b_B.asc

.OP point found by inspection.

Date: Sat Apr 20 15:47:11 2024
Total elapsed time: 0.042 seconds.

tnom = 27
temp = 27
method = trap
totiter = 0
traniter = 0
tranpoints = 0
accept = 0
rejected = 0
matrix size = 3
fillins = 0
solver = Normal
Avg thread counts: 20.0/0.0/0.0/20.0
Matrix Compiler1:       4 opcodes
Matrix Compiler2:      15 opcodes
