Circuit: * C:\Users\anupa\Desktop\IIT LECTURES\Sem-4\EE 230 Analog Lab\Lab_10_Lab_11\LTSpice_Simulation\Q3_b.asc

Direct Newton iteration for .op point succeeded.

Date: Wed Apr  3 23:01:46 2024
Total elapsed time: 26.768 seconds.

tnom = 27
temp = 27
method = modified trap
totiter = 2000044
traniter = 2000034
tranpoints = 1000018
accept = 1000018
rejected = 0
matrix size = 11
fillins = 0
solver = Normal
Avg thread counts: 1.0/1.0/1.0/1.0
Matrix Compiler1: 574 bytes object code size  0.2/0.1/[0.1]
Matrix Compiler2: off  [0.1]/0.2/0.1

